Version 4
SHEET 1 2540 852
WIRE 496 -96 -384 -96
WIRE -384 -64 -384 -96
WIRE 960 16 928 16
WIRE 1024 16 960 16
WIRE 1360 16 1280 16
WIRE 1376 16 1360 16
WIRE -384 32 -384 16
WIRE -256 32 -384 32
WIRE 928 32 928 16
WIRE 1360 32 1360 16
WIRE -384 48 -384 32
WIRE 960 64 960 16
WIRE -384 144 -384 128
WIRE 496 160 496 -96
WIRE 752 160 496 160
WIRE 784 160 752 160
WIRE 1152 192 1152 112
WIRE -608 208 -624 208
WIRE -432 208 -608 208
WIRE -208 208 -432 208
WIRE 288 208 80 208
WIRE 336 208 288 208
WIRE 496 208 496 160
WIRE 496 208 416 208
WIRE 528 208 496 208
WIRE -432 224 -432 208
WIRE -208 224 -208 208
WIRE -128 224 -208 224
WIRE 528 224 528 208
WIRE 528 224 496 224
WIRE 176 240 80 240
WIRE 496 240 496 224
WIRE -256 256 -256 32
WIRE -128 256 -256 256
WIRE 288 256 288 208
WIRE -608 272 -608 208
WIRE 176 272 176 240
WIRE 176 272 80 272
WIRE 784 288 784 240
WIRE -432 304 -432 288
WIRE 288 336 288 320
WIRE 496 336 496 304
WIRE -608 352 -608 336
WIRE 176 352 176 272
WIRE 784 416 784 368
WIRE 624 544 608 544
WIRE 768 544 624 544
WIRE 1088 544 1024 544
WIRE 1200 544 1088 544
WIRE 1232 544 1200 544
WIRE 624 560 624 544
WIRE 1200 576 1200 544
WIRE 768 640 688 640
WIRE 1200 656 1200 640
WIRE 688 672 688 640
WIRE 768 736 672 736
WIRE 1088 736 1088 544
WIRE 1088 736 1024 736
WIRE 672 752 672 736
WIRE 672 832 672 816
WIRE 896 832 896 800
FLAG -432 304 0
FLAG 784 416 0
FLAG 784 240 Vbat
FLAG 752 160 +6V_noise
FLAG 608 544 +Vcc
FLAG 688 672 Vbat
FLAG 672 832 0
FLAG 896 832 0
FLAG 1200 656 0
FLAG 1232 544 +3.3V_sensor
FLAG 176 352 0
FLAG 496 336 0
FLAG 288 336 0
FLAG -384 144 0
FLAG -608 352 0
FLAG -688 208 Vbat
FLAG 624 624 0
FLAG 1152 192 0
FLAG 928 16 +6V_noise
FLAG 1376 16 +Vcc
FLAG 960 128 0
FLAG 1360 96 0
SYMBOL cap -448 224 R0
SYMATTR InstName C2
SYMATTR Value 100µ
SYMATTR SpiceLine V=2.5 Irms=0 Rser=0 Lser=0 mfg="Murata" pn="GRM21BR60E107ME15" type="X5R"
SYMBOL voltage 784 272 R0
WINDOW 123 0 0 Left 0
WINDOW 39 0 0 Left 0
SYMATTR InstName V1
SYMATTR Value 12
SYMBOL PowerProducts\\ADP7112-3.3 896 640 R0
SYMATTR InstName U2
SYMBOL cap 656 752 R0
SYMATTR InstName C9
SYMATTR Value 0.001µ
SYMATTR SpiceLine V=6.3 Irms=25.7m Rser=3.62516 Lser=0 mfg="KEMET" pn="C0402C102K9RAC" type="X7R"
SYMBOL cap 1184 576 R0
SYMATTR InstName C10
SYMATTR Value 2.2µ
SYMATTR SpiceLine V=4 Irms=0 Rser=0 Lser=0 mfg="Murata" pn="GRM033R60G225ME44" type="X5R"
SYMBOL ind 320 224 R270
WINDOW 0 32 56 VTop 2
WINDOW 3 5 56 VBottom 2
SYMATTR InstName L1
SYMATTR Value 47µ
SYMATTR SpiceLine Ipk=0.06 Rser=7 Rpar=462536 Cpar=1.83p mfg="Würth Elektronik" pn="744764147 WE-GF 1210"
SYMBOL cap 480 240 R0
SYMATTR InstName C1
SYMATTR Value 220µ
SYMATTR SpiceLine V=2.5 Irms=0 Rser=0 Lser=0 mfg="Murata" pn="GRM31CR60E227ME11" type="X5R"
SYMBOL schottky 304 320 R180
WINDOW 0 24 64 Left 2
WINDOW 3 24 0 Left 2
SYMATTR InstName D1
SYMATTR Value SS3P5
SYMATTR Description Diode
SYMATTR Type diode
SYMBOL res -400 32 R0
SYMATTR InstName R1
SYMATTR Value 2K
SYMATTR SpiceLine tol=1 pwr=0.1
SYMBOL res -400 -80 R0
SYMATTR InstName R2
SYMATTR Value 6.8K
SYMATTR SpiceLine tol=1 pwr=0.1
SYMBOL zener -592 336 R180
WINDOW 0 24 64 Left 2
WINDOW 3 24 0 Left 2
SYMATTR InstName D3
SYMATTR Value TFZV39B
SYMATTR Description Diode
SYMATTR Type diode
SYMBOL diode -688 224 R270
WINDOW 0 32 32 VTop 2
WINDOW 3 0 32 VBottom 2
SYMATTR InstName D2
SYMATTR Value 1N4148
SYMBOL LM2596_5P0_TRANS -32 240 R0
SYMATTR InstName U1
SYMBOL cap 608 560 R0
SYMATTR InstName C3
SYMATTR Value 4.7µ
SYMATTR SpiceLine V=2.5 Irms=0 Rser=0 Lser=0 mfg="Murata" pn="GRM155R60E475ME76" type="X5R"
SYMBOL PowerProducts\\LT1117-5 1152 16 R0
SYMATTR InstName U4
SYMBOL polcap 1344 32 R0
SYMATTR InstName C8
SYMATTR Value 22µ
SYMBOL polcap 944 64 R0
SYMATTR InstName C4
SYMATTR Value 10µ
TEXT 144 600 Left 2 !.tran 4m
TEXT 144 632 Left 2 ;.op
TEXT -104 472 Left 2 ;GodasJordi_PerezMax_Input&Powerstagesim
