Version 4
SHEET 1 1928 852
WIRE 640 -448 -240 -448
WIRE -240 -416 -240 -448
WIRE -240 -320 -240 -336
WIRE -112 -320 -240 -320
WIRE -240 -304 -240 -320
WIRE -240 -208 -240 -224
WIRE -464 -144 -480 -144
WIRE -288 -144 -464 -144
WIRE -64 -144 -288 -144
WIRE 432 -144 224 -144
WIRE 480 -144 432 -144
WIRE 640 -144 640 -448
WIRE 640 -144 560 -144
WIRE 672 -144 640 -144
WIRE 928 -144 672 -144
WIRE 960 -144 928 -144
WIRE -288 -128 -288 -144
WIRE -64 -128 -64 -144
WIRE 16 -128 -64 -128
WIRE 672 -128 672 -144
WIRE 672 -128 640 -128
WIRE 320 -112 224 -112
WIRE 640 -112 640 -128
WIRE -112 -96 -112 -320
WIRE 16 -96 -112 -96
WIRE 432 -96 432 -144
WIRE -464 -80 -464 -144
WIRE 320 -80 320 -112
WIRE 320 -80 224 -80
WIRE -288 -48 -288 -64
WIRE 432 -16 432 -32
WIRE 640 -16 640 -48
WIRE 928 -16 880 -16
WIRE 1056 -16 928 -16
WIRE 1376 -16 1312 -16
WIRE 1424 -16 1376 -16
WIRE 1536 -16 1424 -16
WIRE -464 0 -464 -16
WIRE 320 0 320 -80
WIRE 928 32 928 -16
WIRE 1424 32 1424 -16
WIRE 1056 80 992 80
WIRE 1424 112 1424 96
WIRE 992 144 992 80
WIRE 992 144 880 144
WIRE 1056 176 1008 176
WIRE 1376 176 1376 -16
WIRE 1376 176 1312 176
WIRE 1008 208 1008 176
WIRE 176 240 176 192
WIRE 1184 272 1184 240
WIRE 1008 288 1008 272
WIRE 176 368 176 320
WIRE 624 544 608 544
WIRE 768 544 624 544
WIRE 1088 544 1024 544
WIRE 1200 544 1088 544
WIRE 1232 544 1200 544
WIRE 624 560 624 544
WIRE 1200 576 1200 544
WIRE 768 640 688 640
WIRE 1200 656 1200 640
WIRE 688 672 688 640
WIRE 768 736 672 736
WIRE 1088 736 1088 544
WIRE 1088 736 1024 736
WIRE 672 752 672 736
WIRE 672 832 672 816
WIRE 896 832 896 800
FLAG -288 -48 0
FLAG 176 368 0
FLAG 176 192 Vbat
FLAG 928 -144 +6V_noise
FLAG 880 -16 +6V_noise
FLAG 1184 272 0
FLAG 1008 288 0
FLAG 1424 112 0
FLAG 608 544 +Vcc
FLAG 688 672 Vbat
FLAG 672 832 0
FLAG 896 832 0
FLAG 1200 656 0
FLAG 1232 544 +3.3V_sensor
FLAG 1536 -16 +Vcc
FLAG 880 144 Vbat
FLAG 928 96 0
FLAG 320 0 0
FLAG 640 -16 0
FLAG 432 -16 0
FLAG -240 -208 0
FLAG -464 0 0
FLAG -544 -144 Vbat
FLAG 624 624 0
SYMBOL cap -304 -128 R0
SYMATTR InstName C2
SYMATTR Value 100µ
SYMATTR SpiceLine V=2.5 Irms=0 Rser=0 Lser=0 mfg="Murata" pn="GRM21BR60E107ME15" type="X5R"
SYMBOL voltage 176 224 R0
WINDOW 123 0 0 Left 0
WINDOW 39 0 0 Left 0
SYMATTR InstName V1
SYMATTR Value 12
SYMBOL cap 992 208 R0
SYMATTR InstName C6
SYMATTR Value 0.001µ
SYMATTR SpiceLine V=6.3 Irms=25.7m Rser=3.62516 Lser=0 mfg="KEMET" pn="C0402C102K9RAC" type="X7R"
SYMBOL cap 1408 32 R0
SYMATTR InstName C7
SYMATTR Value 4.7µ
SYMATTR SpiceLine V=2.5 Irms=0 Rser=0 Lser=0 mfg="Murata" pn="GRM155R60E475ME76" type="X5R"
SYMBOL PowerProducts\\ADP7112-3.3 896 640 R0
SYMATTR InstName U2
SYMBOL cap 656 752 R0
SYMATTR InstName C9
SYMATTR Value 0.001µ
SYMATTR SpiceLine V=6.3 Irms=25.7m Rser=3.62516 Lser=0 mfg="KEMET" pn="C0402C102K9RAC" type="X7R"
SYMBOL cap 1184 576 R0
SYMATTR InstName C10
SYMATTR Value 2.2µ
SYMATTR SpiceLine V=4 Irms=0 Rser=0 Lser=0 mfg="Murata" pn="GRM033R60G225ME44" type="X5R"
SYMBOL cap 912 32 R0
SYMATTR InstName C5
SYMATTR Value 4.7µ
SYMATTR SpiceLine V=2.5 Irms=0 Rser=0 Lser=0 mfg="Murata" pn="GRM155R60E475ME76" type="X5R"
SYMBOL PowerProducts\\ADM7172-5.0 1184 80 R0
SYMATTR InstName U3
SYMBOL ind 464 -128 R270
WINDOW 0 32 56 VTop 2
WINDOW 3 5 56 VBottom 2
SYMATTR InstName L1
SYMATTR Value 47µ
SYMATTR SpiceLine Ipk=0.06 Rser=7 Rpar=462536 Cpar=1.83p mfg="Würth Elektronik" pn="744764147 WE-GF 1210"
SYMBOL cap 624 -112 R0
SYMATTR InstName C1
SYMATTR Value 220µ
SYMATTR SpiceLine V=2.5 Irms=0 Rser=0 Lser=0 mfg="Murata" pn="GRM31CR60E227ME11" type="X5R"
SYMBOL schottky 448 -32 R180
WINDOW 0 24 64 Left 2
WINDOW 3 24 0 Left 2
SYMATTR InstName D1
SYMATTR Value SS3P5
SYMATTR Description Diode
SYMATTR Type diode
SYMBOL res -256 -320 R0
SYMATTR InstName R1
SYMATTR Value 2.49K
SYMATTR SpiceLine tol=1 pwr=0.1
SYMBOL res -256 -432 R0
SYMATTR InstName R2
SYMATTR Value 6.49K
SYMATTR SpiceLine tol=1 pwr=0.1
SYMBOL zener -448 -16 R180
WINDOW 0 24 64 Left 2
WINDOW 3 24 0 Left 2
SYMATTR InstName D3
SYMATTR Value TFZV39B
SYMATTR Description Diode
SYMATTR Type diode
SYMBOL diode -544 -128 R270
WINDOW 0 32 32 VTop 2
WINDOW 3 0 32 VBottom 2
SYMATTR InstName D2
SYMATTR Value 1N4148
SYMBOL LM2596_5P0_TRANS 112 -112 R0
SYMATTR InstName U1
SYMBOL cap 608 560 R0
SYMATTR InstName C3
SYMATTR Value 4.7µ
SYMATTR SpiceLine V=2.5 Irms=0 Rser=0 Lser=0 mfg="Murata" pn="GRM155R60E475ME76" type="X5R"
TEXT 144 600 Left 2 !.tran 3m
TEXT 144 632 Left 2 ;.op
TEXT 176 -536 Left 2 ;GodasJordi_PerezMax_Input&Powerstagesim
