Version 4
SHEET 1 1928 852
WIRE 80 -272 48 -272
WIRE 192 -272 160 -272
WIRE 48 -208 48 -272
WIRE 192 -208 192 -272
WIRE -288 -144 -320 -144
WIRE -112 -144 -288 -144
WIRE -64 -144 -112 -144
WIRE 656 -144 320 -144
WIRE 784 -144 656 -144
WIRE 928 -144 784 -144
WIRE -288 -128 -288 -144
WIRE -112 -80 -112 -144
WIRE -64 -80 -112 -80
WIRE 544 -80 320 -80
WIRE 544 -64 544 -80
WIRE -288 -48 -288 -64
WIRE 448 -16 320 -16
WIRE 928 -16 880 -16
WIRE 1056 -16 928 -16
WIRE 1376 -16 1312 -16
WIRE 1424 -16 1376 -16
WIRE 1536 -16 1424 -16
WIRE 928 32 928 -16
WIRE 1424 32 1424 -16
WIRE 448 48 448 -16
WIRE 448 48 320 48
WIRE -608 64 -608 16
WIRE 1056 80 992 80
WIRE 368 112 320 112
WIRE 1424 112 1424 96
WIRE 368 128 368 112
WIRE 448 128 368 128
WIRE 448 144 448 128
WIRE 992 144 992 80
WIRE 992 144 880 144
WIRE 1056 176 1008 176
WIRE 1376 176 1376 -16
WIRE 1376 176 1312 176
WIRE -608 192 -608 144
WIRE 1008 208 1008 176
WIRE 528 240 320 240
WIRE 528 256 528 240
WIRE 1184 272 1184 240
WIRE 1008 288 1008 272
WIRE 352 304 320 304
WIRE 432 304 416 304
WIRE 432 320 432 304
WIRE 48 400 48 368
WIRE 192 400 192 368
WIRE 768 544 608 544
WIRE 1088 544 1024 544
WIRE 1200 544 1088 544
WIRE 1232 544 1200 544
WIRE 1200 576 1200 544
WIRE 768 640 688 640
WIRE 1200 656 1200 640
WIRE 688 672 688 640
WIRE 768 736 672 736
WIRE 1088 736 1088 544
WIRE 1088 736 1024 736
WIRE 672 752 672 736
WIRE 672 832 672 816
WIRE 896 832 896 800
FLAG 432 320 0
FLAG 48 400 0
FLAG 448 144 0
FLAG 528 336 0
FLAG 192 400 0
FLAG 544 -64 0
FLAG -320 -144 Vin
FLAG -288 -48 0
FLAG -608 192 0
FLAG -608 16 Vin
FLAG 656 -80 0
FLAG 784 -80 0
FLAG 928 -144 +6V_noise
FLAG 880 -16 +6V_noise
FLAG 1184 272 0
FLAG 1008 288 0
FLAG 1424 112 0
FLAG 608 544 +Vcc
FLAG 688 672 Vin
FLAG 672 832 0
FLAG 896 832 0
FLAG 1200 656 0
FLAG 1232 544 +3.3V_sensor
FLAG 1536 -16 +Vcc
FLAG 880 144 Vin
FLAG 928 96 0
SYMBOL PowerProducts\\LTM4605 128 80 R0
SYMATTR InstName U1
SYMBOL cap 416 288 R90
WINDOW 0 0 32 VBottom 2
WINDOW 3 32 32 VTop 2
SYMATTR InstName C1
SYMATTR Value 0.1µ
SYMBOL res 432 32 R0
SYMATTR InstName R1
SYMATTR Value 6m
SYMBOL ind 64 -256 R270
WINDOW 0 32 56 VTop 2
WINDOW 3 5 56 VBottom 2
SYMATTR InstName L1
SYMATTR Value 4.7µ
SYMBOL res 512 240 R0
SYMATTR InstName R2
SYMATTR Value 18k
SYMBOL cap -304 -128 R0
SYMATTR InstName C2
SYMATTR Value 0.1µ
SYMBOL cap 640 -144 R0
SYMATTR InstName C3
SYMATTR Value 470µ
SYMBOL polcap 768 -144 R0
SYMATTR InstName C4
SYMATTR Value 470µ
SYMBOL voltage -608 48 R0
WINDOW 123 0 0 Left 0
WINDOW 39 0 0 Left 0
SYMATTR InstName V1
SYMATTR Value 12
SYMBOL cap 992 208 R0
SYMATTR InstName C6
SYMATTR Value 1n
SYMBOL cap 1408 32 R0
SYMATTR InstName C7
SYMATTR Value 4.7µ
SYMBOL PowerProducts\\ADP7112-3.3 896 640 R0
SYMATTR InstName U2
SYMBOL cap 656 752 R0
SYMATTR InstName C9
SYMATTR Value 1n
SYMBOL cap 1184 576 R0
SYMATTR InstName C10
SYMATTR Value 2.2µ
SYMBOL cap 912 32 R0
SYMATTR InstName C5
SYMATTR Value 4.7µ
SYMBOL PowerProducts\\ADM7172-5.0 1184 80 R0
SYMATTR InstName U3
TEXT -640 424 Left 2 !.tran 0 10m 9.990m
TEXT -640 456 Left 2 ;.op
